*Heading
** Job name: my_job Model name: my_model
** Generated by: Abaqus/CAE 6.13-4
*Preprint, echo=NO, model=NO, history=NO, contact=NO
**
** PARTS
**
*Part, name=meshedPart
*Node
      1,   2305.80005,   25.3936977,   381.356354
      2,   2305.80005,   20.5296974,   381.356354
      3,    2250.8999,   20.5296974,   381.356354
      4,    2250.8999,   25.3936977,   381.356354
      5,   2305.80005,   20.5296974,   386.220367
      6,    2250.8999,   20.5296974,   386.220367
      7,    2250.8999,   25.3936977,   386.220367
      8,   2305.80005,   25.3936977,   386.220367
      9,   2360.69995,   25.3936977,   381.356354
     10,   2360.69995,   20.5296974,   381.356354
** ...etc
*Element, type=C3D8
1, 8, 5, 6, 7, 1, 2, 3, 4
2,  5,  8, 11, 12,  2,  1,  9, 10
3, 16, 15,  7,  6, 13, 14,  4,  3
4, 12, 11, 19, 20, 10,  9, 17, 18
5, 24, 23, 15, 16, 21, 22, 14, 13
6, 28, 27, 20, 19, 25, 26, 18, 17
7, 23, 24, 31, 32, 22, 21, 29, 30
8, 27, 28, 35, 36, 26, 25, 33, 34
9, 32, 31, 39, 40, 30, 29, 37, 38
10, 44, 43, 36, 35, 41, 42, 34, 33
**...etc
*Element, type=C3D8R
19561, 80396, 80393, 80394, 80395, 80389, 80390, 80391, 80392
19562, 80404, 80401, 80402, 80403, 80397, 80398, 80399, 80400
19563, 80401, 80404, 80407, 80408, 80398, 80397, 80405, 80406
19564, 80412, 80411, 80403, 80402, 80409, 80410, 80400, 80399
19565, 80416, 80415, 80408, 80407, 80413, 80414, 80406, 80405
19566, 80420, 80419, 80411, 80412, 80417, 80418, 80410, 80409
19567, 80424, 80423, 80415, 80416, 80421, 80422, 80414, 80413
19568, 80419, 80420, 80427, 80428, 80418, 80417, 80425, 80426
19569, 80432, 80431, 80423, 80424, 80429, 80430, 80422, 80421
19570, 80436, 80435, 80428, 80427, 80433, 80434, 80426, 80425
**...etc
*Element, type=C3D4
  54358, 459514, 445765, 458428, 458429
  54359, 459514, 445764, 458428, 445765
  54360, 222829, 222749, 222752, 459514
  54361, 222752, 222749, 445764, 459514
  54362, 459514, 222830, 222749, 445764
  54363, 459514, 222830, 458429, 222829
  54364, 421772, 455755, 455855, 459515
  54365, 455756, 421772, 455755, 455855
  54366, 459515, 455854, 426868, 455755
  54367, 459515, 421772, 421770, 455855
  54368, 459515, 421772, 426868, 426866
**...etc
*Element, type=COH3D8
1392691,      8,      7,      6,      5, 246399, 245119, 245120, 246400
1392692,      1,      2,      3,      4, 246397, 246398, 245118, 245117
1392693,      5,      6,      3,      2, 246400, 245120, 245118, 246398
1392694,      1,      4,      7,      8, 246397, 245117, 245119, 246399
1392695,      5,     12,     11,      8, 246400, 247752, 247751, 246399
1392696,      2,      1,      9,     10, 246398, 246397, 247749, 247750
1392697,      8,     11,      9,      1, 246399, 247751, 247749, 246397
1392698,      2,     10,     12,      5, 246398, 247750, 247752, 246400
1392699,     16,      6,      7,     15, 243888, 245120, 245119, 243887
1392700,     13,     14,      4,      3, 243886, 243885, 245117, 245118
**...etc
*Nset, nset=matrixRearFace
  64437,  64438,  64439,  64440,  64593,  64594,  64595,  64596,  64761,  64762,  64763,  64764,  64917,  64918,  64919,  64920
  65085,  65086,  65087,  65088,  65241,  65242,  65243,  65244,  65413,  65414,  65415,  65416,  65577,  65578,  65579,  65580
  65745,  65746,  65747,  65748,  65913,  65914,  65915,  65916,  66085,  66086,  66087,  66088,  66249,  66250,  66251,  66252
  66421,  66422,  66423,  66424,  66589,  66590,  66591,  66592,  66761,  66762,  66763,  66764,  66929,  66930,  66931,  66932
  67097,  67098,  67099,  67100,  67265,  67266,  67267,  67268,  67429,  67430,  67431,  67432,  67597,  67598,  67599,  67600
  67761,  67762,  67763,  67764,  67925,  67926,  67927,  67928,  68089,  68090,  68091,  68092,  68245,  68246,  68247,  68248
  68405,  68406,  68407,  68408,  68569,  68570,  68571,  68572,  68733,  68734,  68735,  68736,  68893,  68894,  68895,  68896
  69057,  69058,  69059,  69060,  69217,  69218,  69219,  69220,  69385,  69386,  69387,  69388,  69541,  69542,  69543,  69544
  69709,  69710,  69711,  69712,  69873,  69874,  69875,  69876,  70045,  70046,  70047,  70048,  70201,  70202,  70203,  70204
  70369,  70370,  70371,  70372,  70537,  70538,  70539,  70540,  70705,  70706,  70707,  70708,  70877,  70878,  70879,  70880
**...etc
*Elset, elset=matrixRearFace
  15654,  15692,  15733,  15771,  15812,  15850,  15892,  15932,  15973,  16014,  16056,  16096,  16138,  16179,  16221,  16262
  16303,  16344,  16384,  16425,  16465,  16505,  16545,  16583,  16622,  16662,  16702,  16741,  16781,  16820,  16861,  16899
  16940,  16980,  17022,  17060,  17101,  17142,  17183,  17225,  17266,  17307,  17347,  17385,  17426,  17465,  17504,  17543
  17581,  17618,  17657,  17758,  17841,  17891,  18014,  18116,  18224,  18353,  18455,  18538,  18586,  18708,  18807,  18911
  19065,  19151,  19199,  19282,  19331,  19561,  19683,  19782,  20085,  20177,  20364,  20492,  20545,  20560,  20643,  20685
  20797,  20875,  20985,  21068,  21090,  21173,  21195,  21313,  21411,  21505,  21624,  21707,  21733,  21816,  21857,  21949
  22033,  22104,  22121,  22204,  22231,  22321,  22404,  22525,  22608,  22640,  22723,  22823,  22879,  22897,  22951,  22985
  23068,  23091,  23190,  23276,  23329,  23349,  23432,  23469,  23554,  23641,  23750,  23812,  23833,  23916,  23948,  24035
  24135,  24242,  24285,  24306,  24407,  24512,  24556,  24578,  24621,  24658,  24701,  24735,  24782,  24809,  24892,  24914
  25002,  25102,  25195,  25253,  25276,  25366,  25412,  25437,  25483,  25515,  25562,  25586,  25646,  25670,  25718,  25749
  25810,  25834,  25943,  25992,  26016,  26074,  26098,  26195,  26252,  26280,  26324,  26360,  26404,  26427,  26480,  26504
**...etc
** Additional Sets
** Additional Sections
*Orientation, name=Ori-23
0.981350892220155, -0.0310421302225021, 0.189701904286579, -0.189607068921132, 0.00599765830063189, 0.981841732414164
1, 0.
** Region: (fiberSection:misalignedFibers), (Material Orientation:fiber-21)
*Elset, elset=_I27, internal, generate
 54324,  54357,      1
** Section: fiberSection
*Solid Section, elset=_I27, orientation=Ori-23, material=fiberMat
,
** Section: matrixSection
*Solid Section, elset=matrix, material=matrixMat
,
** Section: interfaceSection
*Cohesive Section, elset=interface, material=interfaceMat, response=TRACTION SEPARATION
, 
*End Part
**  
**
** ASSEMBLY
**
*Assembly, name=Assembly
**  
*Instance, name=meshedPart-1, part=meshedPart
*End Instance
**  
*End Assembly
** 
** MATERIALS
** 
*Material, name=fiberMat
*Damage Initiation, criterion=DUCTILE
 0.0001,0.,0.
*Damage Evolution, type=ENERGY
0.,
*Density
 2e-07,
*Elastic
263000., 0.2
*Plastic
5000.,0.
*Material, name=interfaceMat
*Damage Initiation, criterion=QUADS
50.,50.,50.
*Damage Evolution, type=ENERGY
 0.025,
*Density
 1e-09,
*Elastic, type=TRACTION
 1e+06, 1e+06, 1e+06
*Material, name=matrixMat
*Density
 2e-07,
*Elastic
3000., 0.37
*Plastic
 64.41,      0.
  73.5, 0.02572